24

C -1.334230000000000027e+00 0.000000000000000000e+00 0.000000000000000000e+00
C -6.678800000000000292e-01 1.157049999999999912e+00 0.000000000000000000e+00
C 6.678800000000000292e-01 1.157049999999999912e+00 0.000000000000000000e+00
C 1.334230000000000027e+00 0.000000000000000000e+00 0.000000000000000000e+00
C 6.678800000000000292e-01 -1.157049999999999912e+00 0.000000000000000000e+00
C -6.678800000000000292e-01 -1.157049999999999912e+00 0.000000000000000000e+00
H -2.366229999999999833e+00 0.000000000000000000e+00 0.000000000000000000e+00
H -1.184369999999999923e+00 2.050510000000000055e+00 0.000000000000000000e+00
H 1.184369999999999923e+00 2.050510000000000055e+00 0.000000000000000000e+00
H 2.366229999999999833e+00 0.000000000000000000e+00 0.000000000000000000e+00
H 1.184369999999999923e+00 -2.050510000000000055e+00 0.000000000000000000e+00
H -1.184369999999999923e+00 -2.050510000000000055e+00 0.000000000000000000e+00
C 8.665770000000000195e+00 0.000000000000000000e+00 0.000000000000000000e+00
C 9.332119999999999749e+00 1.157049999999999912e+00 0.000000000000000000e+00
C 1.066788000000000025e+01 1.157049999999999912e+00 0.000000000000000000e+00
C 1.133422999999999981e+01 0.000000000000000000e+00 0.000000000000000000e+00
C 1.066788000000000025e+01 -1.157049999999999912e+00 0.000000000000000000e+00
C 9.332119999999999749e+00 -1.157049999999999912e+00 0.000000000000000000e+00
H 7.633770000000000167e+00 0.000000000000000000e+00 0.000000000000000000e+00
H 8.815630000000000521e+00 2.050510000000000055e+00 0.000000000000000000e+00
H 1.118436999999999948e+01 2.050510000000000055e+00 0.000000000000000000e+00
H 1.236622999999999983e+01 0.000000000000000000e+00 0.000000000000000000e+00
H 1.118436999999999948e+01 -2.050510000000000055e+00 0.000000000000000000e+00
H 8.815630000000000521e+00 -2.050510000000000055e+00 0.000000000000000000e+00
